/*--------------------------------*- C++ -*----------------------------------*\
| =========                 |                                                 |
| \\      /  F ield         | OpenFOAM: The Open Source CFD Toolbox           |
|  \\    /   O peration     | Version:  v2412                                 |
|   \\  /    A nd           | Website:  www.openfoam.com                      |
|    \\/     M anipulation  |                                                 |
\*---------------------------------------------------------------------------*/
FoamFile
{
    version     2.0;
    format      ascii;
    class       volScalarField;
    object      nut;
}
// * * * * * * * * * * * * * * * * * * * * * * * * * * * * * * * * * * * * * //

dimensions      [0 2 -1 0 0 0 0];

internalField   uniform 0;

boundaryField
{
	hotwater_to_solid // solid_to_hotwater
	{
		type    nutkWallFunction;
		value    uniform 0;
	}

	hotwaterZMax
	{
		type    calculated;
		value    uniform 0;
	}

	hotwaterZMin
	{
		type    calculated;
		value    uniform 0;
	}
}


// ************************************************************************* //
