/*--------------------------------*- C++ -*----------------------------------*\
| =========                 |                                                 |
| \\      /  F ield         | OpenFOAM: The Open Source CFD Toolbox           |
|  \\    /   O peration     | Version:  v2412                                 |
|   \\  /    A nd           | Website:  www.openfoam.com                      |
|    \\/     M anipulation  |                                                 |
\*---------------------------------------------------------------------------*/
FoamFile
{
    version     2.0;
    format      binary;
    class       volScalarField;
    object      omega;
}
// * * * * * * * * * * * * * * * * * * * * * * * * * * * * * * * * * * * * * //

dimensions    [ 0 0 -1 0 0 0 0 ];
internalField    uniform 6.7082e-05;
boundaryField
{
	hotwater_to_solid // solid_to_hotwater
	{
		type    omegaWallFunction;
		// blending    binomial2;
		value    uniform 6.7082e-05;
	}

	hotwaterZMax
	{
		type    inletOutlet;
		inletValue    uniform 0.67082;
		value    uniform 6.7082e-05;
	}

	hotwaterZMin
	{
		type    turbulentMixingLengthFrequencyInlet;
		mixingLength    0.01;
		value    uniform 0.0536656;
	}

}

// ************************************************************************* //
