/*--------------------------------*- C++ -*----------------------------------*\
| =========                 |                                                 |
| \\      /  F ield         | OpenFOAM: The Open Source CFD Toolbox           |
|  \\    /   O peration     | Version:  v2412                                 |
|   \\  /    A nd           | Website:  www.openfoam.com                      |
|    \\/     M anipulation  |                                                 |
\*---------------------------------------------------------------------------*/
FoamFile
{
    version     2.0;
    format      ascii;
    class       volScalarField;
    object      p_rgh;
}
// * * * * * * * * * * * * * * * * * * * * * * * * * * * * * * * * * * * * * //

dimensions      [1 -1 -2 0 0 0 0];

internalField   uniform 101325;

boundaryField
{
	hotwater_to_solid // solid_to_hotwater
	{
		type    fixedFluxPressure;
		value    uniform 101325;
	}

	hotwaterZMax
	{
		type    totalPressure;
		U    U;
		phi    phi;
		psi    none;
		gamma    1;
		rho    rho;
		p0    uniform 101325;
	}

	hotwaterZMin
	{
		type    fixedFluxPressure;
		value    uniform 101325;
	}
}


// ************************************************************************* //
