/*--------------------------------*- C++ -*----------------------------------*\
| =========                 |                                                 |
| \\      /  F ield         | OpenFOAM: The Open Source CFD Toolbox           |
|  \\    /   O peration     | Version:  v2412                                 |
|   \\  /    A nd           | Website:  www.openfoam.com                      |
|    \\/     M anipulation  |                                                 |
\*---------------------------------------------------------------------------*/
FoamFile
{
    version     2.0;
    format      ascii;
    class       volVectorField;
    object      U;
}
// * * * * * * * * * * * * * * * * * * * * * * * * * * * * * * * * * * * * * //

dimensions      [0 1 -1 0 0 0 0];

internalField   uniform (0 0 0.8);

boundaryField
{
	hotwater_to_solid // solid_to_hotwater
	{
		type    fixedValue;
		value    uniform (0 0 0);
	}

	hotwaterZMax
	{
		type    pressureInletOutletVelocity;
		value    $internalField;
	}

	hotwaterZMin
	{
		type    fixedValue;
		value    $internalField;
	}
}


// ************************************************************************* //
