/*--------------------------------*- C++ -*----------------------------------*\
| =========                 |                                                 |
| \\      /  F ield         | OpenFOAM: The Open Source CFD Toolbox           |
|  \\    /   O peration     | Version:  v2412                                 |
|   \\  /    A nd           | Website:  www.openfoam.com                      |
|    \\/     M anipulation  |                                                 |
\*---------------------------------------------------------------------------*/
FoamFile
{
    version     2.0;
    format      ascii;
    class       dictionary;
    object      controlDict;
}
// * * * * * * * * * * * * * * * * * * * * * * * * * * * * * * * * * * * * * //

application     chtMultiRegionSimpleFoam;

startFrom       latestTime;

startTime       0;

stopAt          endTime;

endTime         30000;

deltaT          1;

writeControl    timeStep;

writeInterval   100;

purgeWrite      10;

writeFormat     ascii;

writePrecision  7;

writeCompression off;

timeFormat      general;

timePrecision   6;

runTimeModifiable true;

functions
{
    multiRegion
    {
        type    multiRegion;
        libs    (utilityFunctionObjects);

        // regions ( ".*Air" );

        function
        {
            // Actual object specification
            type    fieldMinMax;
            libs    (fieldFunctionObjects);
            fields  (T);
        }
    }
	#includeFunc    residuals_coldwater;
	#includeFunc    residuals_hotwater;
	#includeFunc    residuals_solid;
	ABORT
	{
		type    abort;
		libs    ("libutilityFunctionObjects.so");
		file    "<case>/ABORT";
		action    nextWrite;
	}

	fieldMinMax_coldwater
	{
		type    fieldMinMax;
		libs    ("libfieldFunctionObjects.so");
		region    coldwater;
		writeToFile    yes;
		log    yes;
		location    yes;
		mode    magnitude;
		fields    ( U  p_rgh  T );
	}

	fieldMinMax_hotwater
	{
		type    fieldMinMax;
		libs    ("libfieldFunctionObjects.so");
		region    hotwater;
		writeToFile    yes;
		log    yes;
		location    yes;
		mode    magnitude;
		fields    ( U  p_rgh  T );
	}

	fieldMinMax_solid
	{
		type    fieldMinMax;
		libs    ("libfieldFunctionObjects.so");
		region    solid;
		writeToFile    yes;
		log    yes;
		location    yes;
		mode    magnitude;
		fields    ( T );
	}

	yPlus_coldwater
	{
		type    yPlus;
		libs    ("libfieldFunctionObjects.so");
		region    coldwater;
		writeControl    writeTime;
		log    yes;
		writeFields    no;
	}

	yPlus_hotwater
	{
		type    yPlus;
		libs    ("libfieldFunctionObjects.so");
		region    hotwater;
		writeControl    writeTime;
		log    yes;
		writeFields    no;
	}
}


// ************************************************************************* //
