/*--------------------------------*- C++ -*----------------------------------*\
| =========                 |                                                 |
| \\      /  F ield         | OpenFOAM: The Open Source CFD Toolbox           |
|  \\    /   O peration     | Version:  v2412                                 |
|   \\  /    A nd           | Website:  www.openfoam.com                      |
|    \\/     M anipulation  |                                                 |
\*---------------------------------------------------------------------------*/
FoamFile
{
    version     2.0;
    format      ascii;
    class       volScalarField;
    object      k;
}
// * * * * * * * * * * * * * * * * * * * * * * * * * * * * * * * * * * * * * //

dimensions      [0 2 -2 0 0 0 0];

internalField    uniform 9.1125e-05;

boundaryField
{

    ".*"
    {
        type            kqRWallFunction;
        value           uniform 0.1;
    }
    XMin
    {
        type            kqRWallFunction;
        value           uniform 0.1;

    }
    XMax
    {
        type            kqRWallFunction;
        value           uniform 0.1;
    }
    YMin
    {
        type            kqRWallFunction;
        value           uniform 0.1;
    }
    YMax
    {
        type            kqRWallFunction;
        value           uniform 0.1;
    }
    ZMin_outlet1
    {
		type    inletOutlet;
		inletValue    uniform 1.35e-05;
		value    uniform 1.35e-13;
    }
    ZMin_outlet2
    {
		type    inletOutlet;
		inletValue    uniform 1.35e-05;
		value    uniform 1.35e-13;
    }
    ZMin_wall
    {
        type            kqRWallFunction;
        value           uniform 0.1;
    }
    ZMin_wall1
    {
        type            kqRWallFunction;
        value           uniform 0.1;
    }
    ZMin_wall2
    {
        type            kqRWallFunction;
        value           uniform 0.1;
    }
    ZMax
    {
		type    turbulentIntensityKineticEnergyInlet;
		intensity    0.03;
		value    $internalField;
    }
}


// ************************************************************************* //
