/*--------------------------------*- C++ -*----------------------------------*\
| =========                 |                                                 |
| \\      /  F ield         | OpenFOAM: The Open Source CFD Toolbox           |
|  \\    /   O peration     | Version:  v2412                                 |
|   \\  /    A nd           | Website:  www.openfoam.com                      |
|    \\/     M anipulation  |                                                 |
\*---------------------------------------------------------------------------*/
FoamFile
{
    version     2.0;
    format      ascii;
    class       volScalarField;
    object      nut;
}
// * * * * * * * * * * * * * * * * * * * * * * * * * * * * * * * * * * * * * //

dimensions      [0 2 -1 0 0 0 0];

internalField   uniform 0;

boundaryField
{
    ".*"
    {
		type    nutkWallFunction;
		value    uniform 0;
    }
    XMin
    {
		type    nutkWallFunction;
		value    uniform 0;
    }
    XMax
    {
		type    nutkWallFunction;
		value    uniform 0;
    }
    YMin
    {
		type    nutkWallFunction;
		value    uniform 0;
    }
    YMax
    {
		type    nutkWallFunction;
		value    uniform 0;
    }
    ZMin_outlet1
    {
		type    calculated;
		value    uniform 0;
    }
    ZMin_outlet2
    {
		type    calculated;
		value    uniform 0;
    }
    ZMin_wall
    {
		type    nutkWallFunction;
		value    uniform 0;
    }
    ZMin_wall1
    {
		type    nutkWallFunction;
		value    uniform 0;
    }
    ZMin_wall2
    {
		type    nutkWallFunction;
		value    uniform 0;
    }
    ZMax
    {
		type    calculated;
		value    uniform 0;
    }
}

// ************************************************************************* //
