/*--------------------------------*- C++ -*----------------------------------*\
| =========                 |                                                 |
| \\      /  F ield         | OpenFOAM: The Open Source CFD Toolbox           |
|  \\    /   O peration     | Version:  v2412                                 |
|   \\  /    A nd           | Website:  www.openfoam.com                      |
|    \\/     M anipulation  |                                                 |
\*---------------------------------------------------------------------------*/
FoamFile
{
    version     2.0;
    format      ascii;
    class       volScalarField;
    object      p;
}
// * * * * * * * * * * * * * * * * * * * * * * * * * * * * * * * * * * * * * //

dimensions      [1 -1 -2 0 0 0 0];

internalField   uniform 101325.0;

boundaryField
{
    ".*"
    {
        type calculated;
        value uniform 101325.0;
    }
    XMin
    {
        type calculated;
        value uniform 101325.0;
    }
    XMax
    {
        type calculated;
        value uniform 101325.0;
    }
    YMin
    {
        type calculated;
        value uniform 101325.0;
    }
    YMax
    {
        type calculated;
        value uniform 101325.0;
    }
    ZMin_outlet1
    {
        type calculated;
        value uniform 101325.0;
    }
    ZMin_outlet2
    {
        type calculated;
        value uniform 101325.0;
    }
    ZMin_wall
    {
        type calculated;
        value uniform 101325.0;
    }
    ZMin_wall1
    {
         type calculated;
        value uniform 101325.0;
    }
    ZMin_wall2
    {
         type calculated;
        value uniform 101325.0;
    }
    ZMax
    {
        type calculated;
        value uniform 101325.0;
    }
}

// ************************************************************************* //
