/*--------------------------------*- C++ -*----------------------------------*\
| =========                 |                                                 |
| \\      /  F ield         | OpenFOAM: The Open Source CFD Toolbox           |
|  \\    /   O peration     | Version:  v2412                                 |
|   \\  /    A nd           | Website:  www.openfoam.com                      |
|    \\/     M anipulation  |                                                 |
\*---------------------------------------------------------------------------*/
FoamFile
{
    version     2.0;
    format      ascii;
    class       volScalarField;
    object      T;
}
// * * * * * * * * * * * * * * * * * * * * * * * * * * * * * * * * * * * * * //

dimensions      [0 0 0 1 0 0 0];

internalField   uniform 293.15;

boundaryField
{
	coldwaterWalls
	{
		type    zeroGradient;
	}

	coldwater_to_solid //solid_to_coldwater
	{
		type    compressible::turbulentTemperatureCoupledBaffleMixed;
		value    uniform 300;
		Tnbr    T;
		kappaMethod    fluidThermo;
		kappa    none;
	}

	coldwaterZMax
	{
		type    fixedValue;
		value    uniform 293.15;
	}

	coldwaterZMin
	{
		type    zeroGradient;
	}
}


// ************************************************************************* //
